STAAD SPACE
START JOB INFORMATION
ENGINEER DATE 15-Sep-20
END JOB INFORMATION
INPUT WIDTH 79
UNIT METER KN
JOINT COORDINATES
1 0 0 0; 2 0 5 0; 3 4 5 0; 4 4 0 0; 5 2 7 0; 6 1 5 0; 7 1 6 0; 8 2 5 0;
9 3 5 0; 10 3 6 0; 11 0 0 4; 12 0 5 4; 13 4 5 4; 14 4 0 4; 15 2 7 4; 16 1 5 4;
17 1 6 4; 18 2 5 4; 19 3 5 4; 20 3 6 4; 21 0 0 8; 22 0 5 8; 23 4 5 8; 24 4 0 8;
25 2 7 8; 26 1 5 8; 27 1 6 8; 28 2 5 8; 29 3 5 8; 30 3 6 8; 31 0 0 12;
32 0 5 12; 33 4 5 12; 34 4 0 12; 35 2 7 12; 36 1 5 12; 37 1 6 12; 38 2 5 12;
39 3 5 12; 40 3 6 12; 41 0 0 16; 42 0 5 16; 43 4 5 16; 44 4 0 16; 45 2 7 16;
46 1 5 16; 47 1 6 16; 48 2 5 16; 49 3 5 16; 50 3 6 16; 51 0 0 20; 52 0 5 20;
53 4 5 20; 54 4 0 20; 55 2 7 20; 56 1 5 20; 57 1 6 20; 58 2 5 20; 59 3 5 20;
60 3 6 20;
MEMBER INCIDENCES
1 1 2; 2 2 6; 3 3 4; 4 2 7; 5 5 10; 6 6 8; 7 7 5; 8 6 7; 9 8 9; 10 7 8; 11 8 5;
12 9 3; 13 10 3; 14 9 10; 15 10 8; 17 2 12; 18 3 13; 20 5 15; 22 7 17;
25 10 20; 26 11 12; 27 12 16; 28 13 14; 29 12 17; 30 15 20; 31 16 18; 32 17 15;
33 16 17; 34 18 19; 35 17 18; 36 18 15; 37 19 13; 38 20 13; 39 19 20; 40 20 18;
42 12 22; 43 13 23; 45 15 25; 47 17 27; 50 20 30; 51 21 22; 52 22 26; 53 23 24;
54 22 27; 55 25 30; 56 26 28; 57 27 25; 58 26 27; 59 28 29; 60 27 28; 61 28 25;
62 29 23; 63 30 23; 64 29 30; 65 30 28; 67 22 32; 68 23 33; 70 25 35; 72 27 37;
75 30 40; 76 31 32; 77 32 36; 78 33 34; 79 32 37; 80 35 40; 81 36 38; 82 37 35;
83 36 37; 84 38 39; 85 37 38; 86 38 35; 87 39 33; 88 40 33; 89 39 40; 90 40 38;
92 32 42; 93 33 43; 95 35 45; 97 37 47; 100 40 50; 101 41 42; 102 42 46;
103 43 44; 104 42 47; 105 45 50; 106 46 48; 107 47 45; 108 46 47; 109 48 49;
110 47 48; 111 48 45; 112 49 43; 113 50 43; 114 49 50; 115 50 48; 117 42 52;
118 43 53; 120 45 55; 122 47 57; 125 50 60; 126 51 52; 127 52 56; 128 53 54;
129 52 57; 130 55 60; 131 56 58; 132 57 55; 133 56 57; 134 58 59; 135 57 58;
136 58 55; 137 59 53; 138 60 53; 139 59 60; 140 60 58;
DEFINE MATERIAL START
ISOTROPIC CONCRETE
E 2.17185e+007
POISSON 0.17
DENSITY 23.5616
ALPHA 1e-005
DAMP 0.05
TYPE CONCRETE
STRENGTH FCU 27579
END DEFINE MATERIAL
MEMBER PROPERTY AMERICAN
1 TO 15 17 18 20 22 25 TO 40 42 43 45 47 50 TO 65 67 68 70 72 75 TO 90 92 -
93 95 97 100 TO 115 117 118 120 122 125 TO 140 PRIS YD 0.2
CONSTANTS
MATERIAL CONCRETE ALL
SUPPORTS
1 4 11 14 21 24 31 34 41 44 51 54 FIXED
LOAD 1 LOADTYPE Dead  TITLE DD
SELFWEIGHT Y -2 
LOAD 2 LOADTYPE Live REDUCIBLE TITLE LL
JOINT LOAD
5 15 25 35 45 55 FY -10
PERFORM ANALYSIS PRINT ALL
FINISH
